20
Generated by autodE on: 2023-03-16. E = -26.431664 Ha
C     0.82498  -0.34163   1.54666
C    -0.49647  -0.36554   1.68278
C    -1.48303  -0.13019   0.62633
C    -1.26186   0.88820  -0.47950
C    -1.26756  -0.59612  -0.80407
C    -0.05897  -1.31113  -1.22000
C     1.17483  -1.09849  -0.77538
C     1.54282  -0.06166   0.25284
C     1.18475   1.31239  -0.24852
C    -0.04643   1.70161  -0.56121
H     1.44647  -0.53395   2.41035
H    -0.91788  -0.57864   2.65727
H    -2.50733  -0.20267   0.97376
H    -2.15433   1.42081  -0.78739
H    -2.16392  -0.94464  -1.30436
H    -0.22130  -2.08226  -1.96345
H     1.98515  -1.69910  -1.16507
H     2.62007  -0.10453   0.42905
H     2.00094   2.01378  -0.35430
H    -0.20074   2.71376  -0.91588
