30
Properties=species:S:1:pos:R:3 Generated=T by=T autodE=T on:=T 2023-03-16.=T E=-19.050405 Ha=T pbc="F F F"
C        2.21307000       0.03851000      -0.01372000
C        0.71402000       0.01633000      -0.01704000
C        0.02831000      -1.18983000       0.06562000
C       -1.35448000      -1.21752000       0.08238000
C       -2.07388000      -0.03662000       0.01697000
C       -1.40163000       1.17013000      -0.06511000
C       -0.01764000       1.19440000      -0.08163000
H        2.58510000      -0.07830000       1.00457000
H        2.61262000      -0.77914000      -0.61051000
H        2.58951000       0.97988000      -0.40684000
H        0.58590000      -2.11470000       0.11633000
H       -1.87235000      -2.16374000       0.14550000
H       -3.15396000      -0.05646000       0.02800000
H       -1.95546000       2.09622000      -0.11774000
H        0.50087000       2.14085000      -0.14678000
C       17.93304332       0.03851000      -0.01372000
C       16.43399332       0.01633000      -0.01704000
C       15.74828332      -1.18983000       0.06562000
C       14.36549332      -1.21752000       0.08238000
C       13.64609332      -0.03662000       0.01697000
C       14.31834332       1.17013000      -0.06511000
C       15.70233332       1.19440000      -0.08163000
H       18.30507332      -0.07830000       1.00457000
H       18.33259332      -0.77914000      -0.61051000
H       18.30948332       0.97988000      -0.40684000
H       16.30587332      -2.11470000       0.11633000
H       13.84762332      -2.16374000       0.14550000
H       12.56601332      -0.05646000       0.02800000
H       13.76451332       2.09622000      -0.11774000
H       16.22084332       2.14085000      -0.14678000
