15
Generated by autodE on: 2023-03-16. E = -19.050405 Ha
C     2.21307   0.03851  -0.01372
C     0.71402   0.01633  -0.01704
C     0.02831  -1.18983   0.06562
C    -1.35448  -1.21752   0.08238
C    -2.07388  -0.03662   0.01697
C    -1.40163   1.17013  -0.06511
C    -0.01764   1.19440  -0.08163
H     2.58510  -0.07830   1.00457
H     2.61262  -0.77914  -0.61051
H     2.58951   0.97988  -0.40684
H     0.58590  -2.11470   0.11633
H    -1.87235  -2.16374   0.14550
H    -3.15396  -0.05646   0.02800
H    -1.95546   2.09622  -0.11774
H     0.50087   2.14085  -0.14678
